*Heading
** Job name: 5tt_CPE4R Model name: Test_v1
** Generated by: Abaqus/CAE 2021
*Preprint, echo=NO, model=NO, history=NO, contact=NO
**
** PARTS
**
*Part, name=Roll
*End Part
**  
*Part, name=Sheet
*Node
      1,          -1.,           2.
      2,  -1.39999998,           2.
      3,  -1.79999995,           2.
      4,  -2.20000005,           2.
      5,   -2.5999999,           2.
      6,          -3.,           2.
      7,   -3.4000001,           2.
      8,  -3.79999995,           2.
      9,  -4.19999981,           2.
     10,   -4.5999999,           2.
     11,          -5.,           2.
     12,   -5.4000001,           2.
     13,  -5.80000019,           2.
     14,  -6.19999981,           2.
     15,   -6.5999999,           2.
     16,          -7.,           2.
     17,   -7.4000001,           2.
     18,  -7.80000019,           2.
     19,  -8.19999981,           2.
     20,  -8.60000038,           2.
** ... 2236 like lines cut
*Element, type=CPE4R
   1,    1,    2,  378,  377
   2,    2,    3,  379,  378
   3,    3,    4,  380,  379
   4,    4,    5,  381,  380
   5,    5,    6,  382,  381
   6,    6,    7,  383,  382
   7,    7,    8,  384,  383
   8,    8,    9,  385,  384
   9,    9,   10,  386,  385
  10,   10,   11,  387,  386
  11,   11,   12,  388,  387
  12,   12,   13,  389,  388
  13,   13,   14,  390,  389
  14,   14,   15,  391,  390
  15,   15,   16,  392,  391
  16,   16,   17,  393,  392
  17,   17,   18,  394,  393
  18,   18,   19,  395,  394
  19,   19,   20,  396,  395
  20,   20,   21,  397,  396
** ... 1855 like lines cut
*Nset, nset=Whole_sheet, generate
    1,  2256,     1
*Elset, elset=Whole_sheet, generate
    1,  1875,     1
*Nset, nset=Bottom_sheet, generate
 1881,  2256,     1
*Elset, elset=Bottom_sheet, generate
 1501,  1875,     1
*Elset, elset=_slave_top_sheet_S1, internal, generate
   1,  375,    1
*Surface, type=ELEMENT, name=slave_top_sheet
_slave_top_sheet_S1, S1
** Section: DC04
*Solid Section, elset=Whole_sheet, material=DC04
,
*End Part
**  
**
** ASSEMBLY
**
*Assembly, name=Assembly
**  
*Instance, name=Roll-1, part=Roll
          0.,      1.99999,           0.
*Node
      1,           0.,   257.450012,           0.
*Nset, nset=Roll-1-RefPt_, internal
1, 
*Nset, nset=roller_RefPt
 1,
*Surface, type=SEGMENTS, name=master_roller
START,      -257.45,       257.45
 CIRCL, 4.29023750838658, 514.864250503195,           0.,       257.45
 CIRCL,       257.45,       257.45,           0.,       257.45
 CIRCL, 22.4382459703845, 0.979674976280077,           0.,       257.45
 CIRCL,      -257.45,       257.45,           0.,       257.45
*Rigid Body, ref node=Roll-1-RefPt_, analytical surface=master_roller
*End Instance
**  
*Instance, name=Sheet-1, part=Sheet
         31.,           0.,           0.
*End Instance
**  
*End Assembly
** 
** MATERIALS
** 
*Material, name=DC04
*Elastic
206300., 0.3
*Plastic
   477.2,   0.
 508.148,  0.2
 518.504, 0.23
 527.767, 0.26
  536.16, 0.29
 543.843, 0.32
 550.934, 0.35
 557.525, 0.38
 561.676,  0.4
 567.583, 0.43
 573.147, 0.46
 578.411, 0.49
 583.406, 0.52
 588.161, 0.55
 592.699, 0.58
 597.041, 0.61
 601.205, 0.64
 605.205, 0.67
 609.055,  0.7
 612.766, 0.73
** ... 13 like lines cut
** 
** INTERACTION PROPERTIES
** 
*Surface Interaction, name=mu0pt05
1.,
*Friction, slip tolerance=0.005
 0.05,
*Surface Behavior, pressure-overclosure=HARD
*Surface Interaction, name=mu0pt1
1.,
*Friction, slip tolerance=0.005
 0.1,
*Surface Behavior, pressure-overclosure=HARD
*Time Points, name=TimePoints-1, GENERATE
0., 0.09975, 0.009975
0.099775, 0.1, 2.5e-05
** 
** BOUNDARY CONDITIONS
** 
** Name: Roll Type: Velocity/Angular velocity
*Boundary, type=VELOCITY
Roll-1.roller_RefPt, 1, 1
Roll-1.roller_RefPt, 2, 2
Roll-1.roller_RefPt, 6, 6
** Name: Symmetry Type: Symmetry/Antisymmetry/Encastre
*Boundary
Sheet-1.Bottom_sheet, YSYMM
** 
** INTERACTIONS
** 
** Interaction: Sheet-Roll
*Contact Pair, interaction=mu0pt1, type=SURFACE TO SURFACE, tracking=STATE
Sheet-1.slave_top_sheet, Roll-1.master_roller
** ----------------------------------------------------------------
** 
** STEP: Bite
** 
*Step, name=Bite, nlgeom=YES, inc=50000
*Static
0.001, 1., 1e-10, 0.2
** 
** BOUNDARY CONDITIONS
** 
** Name: Roll Type: Velocity/Angular velocity
*Boundary, op=NEW, type=VELOCITY
Roll-1.roller_RefPt, 1, 1
Roll-1.roller_RefPt, 2, 2, -0.5
Roll-1.roller_RefPt, 6, 6
** Name: Symmetry Type: Symmetry/Antisymmetry/Encastre
*Boundary, op=NEW
Sheet-1.Bottom_sheet, YSYMM
** 
** OUTPUT REQUESTS
** 
*Restart, write, frequency=0
** 
** FIELD OUTPUT: F-Output-1
** 
*Output, field, number interval=20
*Node Output
COORD, RF, U
*Element Output, directions=YES
LE, PEEQ, S
*Contact Output
CSTRESS, 
** 
** HISTORY OUTPUT: roller_refPt_force_torque
** 
*Output, history, number interval=200
*Node Output, nset=Roll-1.roller_RefPt
RF2, RM3
** 
** HISTORY OUTPUT: energy_wholeModel
** 
*Output, history, variable=PRESELECT, number interval=200
*End Step
** ----------------------------------------------------------------
** 
** STEP: Roll
** 
*Step, name=Roll, nlgeom=YES, inc=120000
*Static
0.001, 0.1, 1e-08, 0.005
** 
** BOUNDARY CONDITIONS
** 
** Name: Roll Type: Velocity/Angular velocity
*Boundary, op=NEW, type=VELOCITY
Roll-1.roller_RefPt, 1, 1
Roll-1.roller_RefPt, 2, 2
Roll-1.roller_RefPt, 6, 6, 5.
** Name: Symmetry Type: Symmetry/Antisymmetry/Encastre
*Boundary, op=NEW
Sheet-1.Bottom_sheet, YSYMM
** 
** OUTPUT REQUESTS
** 
*Restart, write, frequency=0
** 
** FIELD OUTPUT: F-Output-1
** 
*Output, field, time points=TimePoints-1
*Node Output
COORD, RF, U
*Element Output, directions=YES
LE, PEEQ, S
*Contact Output
CSTRESS, 
** 
** HISTORY OUTPUT: roller_refPt_force_torque
** 
*Output, history, number interval=200
*Node Output, nset=Roll-1.roller_RefPt
RF2, RM3
** 
** HISTORY OUTPUT: energy_wholeModel
** 
*Output, history, variable=PRESELECT, number interval=200
*End Step
